LTspice 24.1.8 for Windows
Circuit: C:\Users\marco\Documents\Buck\Malha_Aberta_Fechada_Modulador\Buck_AFM_MG.net
Start Time: Mon Aug 11 18:24:22 2025
solver = Normal
Maximum thread count: 12
tnom = 27
temp = 27
method = trap
Per .tran options, skipping operating point for transient analysis.
Total elapsed time: 3.062 seconds.

Files loaded:
C:\Users\marco\Documents\Buck\Malha_Aberta_Fechada_Modulador\Buck_AFM_MG.net
C:\Users\marco\AppData\Local\LTspice\lib\cmp\standard.dio
C:\Users\marco\AppData\Local\LTspice\lib\cmp\standard.mos
C:\Users\marco\AppData\Local\LTspice\lib\sub\UniversalOpAmp2.lib

