LTspice 24.1.8 for Windows
Circuit: C:\Users\marco\Documents\Buck\Buck.net
Start Time: Fri May 16 11:25:47 2025
solver = Normal
Maximum thread count: 12
tnom = 27
temp = 27
method = trap
Direct Newton iteration for .op point succeeded.
Warning: Simulation tolerance relaxed to achieve convergence from 1.0413501799871712e-12 to 1.0413511799871711e-12 seconds.
Warning: Simulation tolerance relaxed to achieve convergence from 1.0939341799871722e-12 to 1.0939351799871722e-12 seconds.
Warning: Simulation tolerance relaxed to achieve convergence from 1.1595541799871719e-12 to 1.1595551799871719e-12 seconds.
Warning: Simulation tolerance relaxed to achieve convergence from 1.1994851799871721e-12 to 1.1994861799871721e-12 seconds.
Warning: Simulation tolerance relaxed to achieve convergence from 1.2223231799871723e-12 to 1.2223241799871723e-12 seconds.
Warning: Simulation tolerance relaxed to achieve convergence from 1.2447441799871737e-12 to 1.2447451799871737e-12 seconds.
Warning: Simulation tolerance relaxed to achieve convergence from 1.2627491799871743e-12 to 1.2627501799871742e-12 seconds.
Warning: Simulation tolerance relaxed to achieve convergence from 1.2774201799871750e-12 to 1.2774211799871750e-12 seconds.
Warning: Simulation tolerance relaxed to achieve convergence from 1.3066011799871753e-12 to 1.3066021799871753e-12 seconds.
Warning: Simulation tolerance relaxed to achieve convergence from 1.3133411799871749e-12 to 1.3133421799871749e-12 seconds.
Warning: Simulation tolerance relaxed to achieve convergence from 1.3699661799871750e-12 to 1.3699671799871750e-12 seconds.
Warning: Simulation tolerance relaxed to achieve convergence from 1.3752541799871749e-12 to 1.3752551799871749e-12 seconds.
Warning: Simulation tolerance relaxed to achieve convergence from 1.4037931799871739e-12 to 1.4037941799871739e-12 seconds.
Warning: Simulation tolerance relaxed to achieve convergence from 1.4270981799871745e-12 to 1.4270991799871745e-12 seconds.
Warning: Simulation tolerance relaxed to achieve convergence from 1.4309651799871747e-12 to 1.4309661799871746e-12 seconds.
Warning: Simulation tolerance relaxed to achieve convergence from 1.4386321799871751e-12 to 1.4386331799871750e-12 seconds.
Warning: Simulation tolerance relaxed to achieve convergence from 1.4488671799871754e-12 to 1.4488681799871753e-12 seconds.
Warning: Simulation tolerance relaxed to achieve convergence from 1.4518171799871751e-12 to 1.4518181799871750e-12 seconds.
Warning: Simulation tolerance relaxed to achieve convergence from 1.4701051799871744e-12 to 1.4701061799871744e-12 seconds.
Warning: Simulation tolerance relaxed to achieve convergence from 1.4781031799871749e-12 to 1.4781041799871748e-12 seconds.
Warning: Simulation tolerance relaxed to achieve convergence from 1.5063231799871747e-12 to 1.5063241799871747e-12 seconds.
Warning: Simulation tolerance relaxed to achieve convergence from 1.5063661799871747e-12 to 1.5063671799871747e-12 seconds.
Warning: Simulation tolerance relaxed to achieve convergence from 1.5192051799871753e-12 to 1.5192061799871753e-12 seconds.
Warning: Simulation tolerance relaxed to achieve convergence from 1.5542501799871754e-12 to 1.5542511799871753e-12 seconds.
Warning: Simulation tolerance relaxed to achieve convergence from 1.5550451799871753e-12 to 1.5550461799871752e-12 seconds.
Warning: Simulation tolerance relaxed to achieve convergence from 1.6233571799871764e-12 to 1.6233581799871763e-12 seconds.
Warning: Simulation tolerance relaxed to achieve convergence from 1.6237641799871764e-12 to 1.6237651799871764e-12 seconds.
Warning: Simulation tolerance relaxed to achieve convergence from 1.6246641799871764e-12 to 1.6246651799871763e-12 seconds.
Warning: Simulation tolerance relaxed to achieve convergence from 1.6281461799871766e-12 to 1.6281471799871766e-12 seconds.
Warning: Simulation tolerance relaxed to achieve convergence from 1.6415721799871766e-12 to 1.6415731799871766e-12 seconds.
Warning: Simulation tolerance relaxed to achieve convergence from 1.7230901799871759e-12 to 1.7230911799871759e-12 seconds.
Warning: Simulation tolerance relaxed to achieve convergence from 1.7260851799871757e-12 to 1.7260861799871757e-12 seconds.
Warning: Simulation tolerance relaxed to achieve convergence from 1.7260861799871757e-12 to 1.7260871799871757e-12 seconds.
Warning: Simulation tolerance relaxed to achieve convergence from 1.7392611799871764e-12 to 1.7392621799871764e-12 seconds.
Warning: Simulation tolerance relaxed to achieve convergence from 1.7461711799871762e-12 to 1.7461721799871762e-12 seconds.
Warning: Simulation tolerance relaxed to achieve convergence from 1.7577161799871766e-12 to 1.7577171799871766e-12 seconds.
Warning: Simulation tolerance relaxed to achieve convergence from 1.7844451799871785e-12 to 1.7844461799871785e-12 seconds.
Warning: Simulation tolerance relaxed to achieve convergence from 1.7895171799871784e-12 to 1.7895181799871783e-12 seconds.
Warning: Simulation tolerance relaxed to achieve convergence from 1.8517861799871817e-12 to 1.8517871799871819e-12 seconds.
Warning: Simulation tolerance relaxed to achieve convergence from 1.8541511799871826e-12 to 1.8541521799871828e-12 seconds.
Warning: Simulation tolerance relaxed to achieve convergence from 1.8588761799871835e-12 to 1.8588771799871836e-12 seconds.
Warning: Simulation tolerance relaxed to achieve convergence from 1.8760141799871868e-12 to 1.8760151799871870e-12 seconds.
Warning: Simulation tolerance relaxed to achieve convergence from 1.9040451799871904e-12 to 1.9040461799871906e-12 seconds.
Warning: Simulation tolerance relaxed to achieve convergence from 2.0031321799872046e-12 to 2.0031331799872048e-12 seconds.
Warning: Simulation tolerance relaxed to achieve convergence from 2.0896271799872172e-12 to 2.0896281799872173e-12 seconds.
Warning: Simulation tolerance relaxed to achieve convergence from 2.1252631799872209e-12 to 2.1252641799872211e-12 seconds.
Warning: Simulation tolerance relaxed to achieve convergence from 2.1458371799872242e-12 to 2.1458381799872244e-12 seconds.
Warning: Simulation tolerance relaxed to achieve convergence from 2.1882291799872312e-12 to 2.1882301799872314e-12 seconds.
Warning: Simulation tolerance relaxed to achieve convergence from 2.1945431799872321e-12 to 2.1945441799872323e-12 seconds.
Warning: Simulation tolerance relaxed to achieve convergence from 2.2239191799872359e-12 to 2.2239201799872361e-12 seconds.
Warning: Simulation tolerance relaxed to achieve convergence from 2.2929571799872455e-12 to 2.2929581799872457e-12 seconds.
Warning: Simulation tolerance relaxed to achieve convergence from 2.3089591799872470e-12 to 2.3089601799872472e-12 seconds.
Warning: Simulation tolerance relaxed to achieve convergence from 2.3367561799872517e-12 to 2.3367571799872519e-12 seconds.
Warning: Simulation tolerance relaxed to achieve convergence from 2.3607961799872569e-12 to 2.3607971799872571e-12 seconds.
Warning: Simulation tolerance relaxed to achieve convergence from 2.3608031799872569e-12 to 2.3608041799872571e-12 seconds.
Warning: Simulation tolerance relaxed to achieve convergence from 2.4469061799872689e-12 to 2.4469071799872691e-12 seconds.
Warning: Simulation tolerance relaxed to achieve convergence from 2.4763841799872718e-12 to 2.4763851799872720e-12 seconds.
Warning: Simulation tolerance relaxed to achieve convergence from 2.4831961799872730e-12 to 2.4831971799872732e-12 seconds.
Warning: Simulation tolerance relaxed to achieve convergence from 2.4980991799872754e-12 to 2.4981001799872756e-12 seconds.
Warning: Simulation tolerance relaxed to achieve convergence from 2.5447851799872809e-12 to 2.5447861799872810e-12 seconds.
Warning: Simulation tolerance relaxed to achieve convergence from 2.5506131799872831e-12 to 2.5506141799872833e-12 seconds.
Warning: Simulation tolerance relaxed to achieve convergence from 2.5565311799872836e-12 to 2.5565321799872838e-12 seconds.
Warning: Simulation tolerance relaxed to achieve convergence from 2.5853151799872890e-12 to 2.5853161799872892e-12 seconds.
Warning: Simulation tolerance relaxed to achieve convergence from 2.5962491799872903e-12 to 2.5962501799872905e-12 seconds.
Warning: Simulation tolerance relaxed to achieve convergence from 2.6545431799872968e-12 to 2.6545441799872970e-12 seconds.
Warning: Simulation tolerance relaxed to achieve convergence from 2.6756891799872995e-12 to 2.6756901799872997e-12 seconds.
Warning: Simulation tolerance relaxed to achieve convergence from 2.6807771799873003e-12 to 2.6807781799873005e-12 seconds.
Warning: Simulation tolerance relaxed to achieve convergence from 2.7048991799873040e-12 to 2.7049001799873042e-12 seconds.
Warning: Simulation tolerance relaxed to achieve convergence from 2.7050741799873040e-12 to 2.7050751799873042e-12 seconds.
Warning: Simulation tolerance relaxed to achieve convergence from 2.7282611799873100e-12 to 2.7282621799873102e-12 seconds.
Warning: Simulation tolerance relaxed to achieve convergence from 2.7716811799873159e-12 to 2.7716821799873161e-12 seconds.
Warning: Simulation tolerance relaxed to achieve convergence from 2.7952991799873203e-12 to 2.7953001799873204e-12 seconds.
Warning: Simulation tolerance relaxed to achieve convergence from 2.8085141799873228e-12 to 2.8085151799873230e-12 seconds.
Warning: Simulation tolerance relaxed to achieve convergence from 2.8206451799873241e-12 to 2.8206461799873243e-12 seconds.
Warning: Simulation tolerance relaxed to achieve convergence from 2.8651821799873326e-12 to 2.8651831799873328e-12 seconds.
Warning: Simulation tolerance relaxed to achieve convergence from 2.8733681799873337e-12 to 2.8733691799873339e-12 seconds.
Warning: Simulation tolerance relaxed to achieve convergence from 2.8879161799873368e-12 to 2.8879171799873369e-12 seconds.
Warning: Simulation tolerance relaxed to achieve convergence from 2.9142251799873399e-12 to 2.9142261799873401e-12 seconds.
Warning: Simulation tolerance relaxed to achieve convergence from 2.9444581799873432e-12 to 2.9444591799873434e-12 seconds.
Warning: Simulation tolerance relaxed to achieve convergence from 3.0341841799873545e-12 to 3.0341851799873547e-12 seconds.
Warning: Simulation tolerance relaxed to achieve convergence from 3.0478121799873576e-12 to 3.0478131799873578e-12 seconds.
Warning: Simulation tolerance relaxed to achieve convergence from 3.1676731799873746e-12 to 3.1676741799873748e-12 seconds.
Warning: Simulation tolerance relaxed to achieve convergence from 3.1797651799873772e-12 to 3.1797661799873774e-12 seconds.
Warning: Simulation tolerance relaxed to achieve convergence from 3.1802511799873774e-12 to 3.1802521799873776e-12 seconds.
Warning: Simulation tolerance relaxed to achieve convergence from 3.1955971799873799e-12 to 3.1955981799873801e-12 seconds.
Warning: Simulation tolerance relaxed to achieve convergence from 3.2071161799873825e-12 to 3.2071171799873827e-12 seconds.
Warning: Simulation tolerance relaxed to achieve convergence from 3.2607191799873936e-12 to 3.2607201799873938e-12 seconds.
Warning: Simulation tolerance relaxed to achieve convergence from 3.2849251799873973e-12 to 3.2849261799873975e-12 seconds.
Warning: Simulation tolerance relaxed to achieve convergence from 3.3096301799874031e-12 to 3.3096311799874033e-12 seconds.
Warning: Simulation tolerance relaxed to achieve convergence from 3.3604281799874114e-12 to 3.3604291799874116e-12 seconds.
Warning: Simulation tolerance relaxed to achieve convergence from 3.3776961799874139e-12 to 3.3776971799874140e-12 seconds.
Warning: Simulation tolerance relaxed to achieve convergence from 3.4024321799874174e-12 to 3.4024331799874175e-12 seconds.
Warning: Simulation tolerance relaxed to achieve convergence from 3.4055351799874185e-12 to 3.4055361799874187e-12 seconds.

Simulation stopped by user.
Total elapsed time: 1.638 seconds.

Files loaded:
C:\Users\marco\Documents\Buck\Buck.net
C:\Users\marco\AppData\Local\LTspice\lib\cmp\standard.dio
C:\Users\marco\AppData\Local\LTspice\lib\cmp\standard.mos

